Version 4
SHEET 1 880 968
WIRE -544 192 -656 192
WIRE -432 192 -544 192
WIRE -256 192 -432 192
WIRE -32 192 -256 192
WIRE 80 192 -32 192
WIRE 128 192 128 112
WIRE 128 192 80 192
WIRE 160 192 128 192
WIRE 192 192 160 192
WIRE 352 192 192 192
WIRE 560 192 352 192
WIRE -656 224 -656 192
WIRE -544 224 -544 192
WIRE -432 224 -432 192
WIRE -32 224 -32 192
WIRE 80 224 80 192
WIRE 192 224 192 192
WIRE 352 224 352 192
WIRE -480 304 -496 304
WIRE -80 304 -112 304
WIRE 32 304 0 304
WIRE 304 304 256 304
WIRE -656 352 -656 320
WIRE -592 352 -656 352
WIRE -544 352 -544 320
WIRE -544 352 -592 352
WIRE -32 352 -32 320
WIRE 80 352 80 320
WIRE 80 352 -32 352
WIRE 192 352 192 320
WIRE 192 352 80 352
WIRE -592 384 -592 352
WIRE -432 384 -432 320
WIRE 80 384 80 352
WIRE 288 400 272 400
WIRE 304 400 288 400
WIRE -256 416 -256 192
WIRE -496 432 -496 304
WIRE 256 432 256 304
WIRE 560 432 560 192
WIRE -480 496 -480 464
WIRE -112 512 -112 304
WIRE 304 512 304 496
WIRE -704 528 -704 304
WIRE -592 528 -592 480
WIRE -544 528 -592 528
WIRE -432 528 -432 480
WIRE -432 528 -544 528
WIRE -304 528 -304 496
WIRE -304 528 -432 528
WIRE 32 528 32 464
WIRE -256 544 -256 512
WIRE 80 544 80 480
WIRE 208 544 80 544
WIRE 352 544 352 512
WIRE 352 544 208 544
WIRE 512 544 512 512
WIRE 512 544 352 544
WIRE -640 560 -640 464
WIRE -592 560 -592 528
WIRE -432 560 -432 528
WIRE 80 560 80 544
WIRE 560 560 560 528
WIRE -256 576 -256 544
WIRE 352 576 352 544
WIRE 560 576 560 560
WIRE -640 640 -640 560
WIRE -480 640 -480 496
WIRE 32 640 32 528
WIRE -304 656 -304 528
WIRE 304 656 304 512
WIRE 512 656 512 544
WIRE 80 688 80 656
WIRE 80 688 -48 688
WIRE 208 688 80 688
WIRE -592 704 -592 656
WIRE -592 704 -656 704
WIRE -544 704 -592 704
WIRE -656 720 -656 704
WIRE -544 720 -544 704
WIRE -432 720 -432 656
WIRE -48 720 -48 688
WIRE 80 720 80 688
WIRE 208 720 208 688
WIRE 0 736 0 304
WIRE 144 752 144 304
WIRE 272 752 272 400
WIRE 304 752 272 752
WIRE -704 800 -704 528
WIRE -496 800 -496 432
WIRE -480 800 -496 800
WIRE -112 800 -112 512
WIRE -96 800 -112 800
WIRE 0 800 0 736
WIRE 32 800 0 800
WIRE 144 800 144 752
WIRE 160 800 144 800
WIRE -656 848 -656 816
WIRE -544 848 -544 816
WIRE -544 848 -656 848
WIRE -432 848 -432 816
WIRE -432 848 -544 848
WIRE -256 848 -256 672
WIRE -256 848 -432 848
WIRE -48 848 -48 816
WIRE -48 848 -256 848
WIRE 32 848 -48 848
WIRE 80 848 80 816
WIRE 80 848 32 848
WIRE 208 848 208 816
WIRE 208 848 80 848
WIRE 256 848 256 432
WIRE 304 848 256 848
WIRE 208 880 208 848
WIRE 352 880 352 864
WIRE 352 880 208 880
WIRE 560 880 560 672
WIRE 560 880 352 880
WIRE 32 896 32 848
FLAG 128 32 0
FLAG -848 288 0
FLAG -848 464 0
FLAG -848 656 0
FLAG -656 768 0
FLAG -544 768 0
FLAG -432 768 0
FLAG -592 608 0
FLAG -432 608 0
FLAG 80 608 0
FLAG -48 768 0
FLAG 80 768 0
FLAG 208 768 0
FLAG 352 624 0
FLAG 352 720 0
FLAG 352 816 0
FLAG 160 192 VDD
FLAG -592 432 VDD
FLAG -432 432 VDD
FLAG -656 272 VDD
FLAG -544 272 VDD
FLAG -432 272 VDD
FLAG -32 272 VDD
FLAG 80 272 VDD
FLAG 192 272 VDD
FLAG 80 432 VDD
FLAG 352 464 VDD
FLAG 352 368 VDD
FLAG 352 272 VDD
FLAG 32 896 0
FLAG -848 208 A
FLAG -848 384 B
FLAG -848 576 C
FLAG 560 480 VDD
FLAG -704 528 A
FLAG -496 432 A
FLAG -112 512 A
FLAG 256 432 A
FLAG -592 800 B
FLAG -592 304 B
FLAG -480 496 B
FLAG 0 736 B
FLAG 288 400 B
FLAG 32 528 Carry_bar
FLAG 304 512 C
FLAG -640 560 C
FLAG 144 752 C
FLAG -544 528 Carry_bar
FLAG 208 544 Sum_Bar
FLAG 560 560 Sum
FLAG -256 544 Carry
FLAG -256 624 0
FLAG 560 624 0
FLAG -256 464 VDD
SYMBOL cmosp -704 224 R0
SYMATTR InstName M1
SYMATTR Value2 l=180n w=3200n
SYMBOL cmosp -592 224 R0
SYMATTR InstName M2
SYMATTR Value2 l=180n w=3200n
SYMBOL cmosp -480 224 R0
SYMATTR InstName M3
SYMATTR Value2 l=180n w=3200n
SYMBOL cmosp -80 224 R0
SYMATTR InstName M4
SYMATTR Value2 l=180n w=1600n
SYMBOL cmosp 32 224 R0
SYMATTR InstName M5
SYMATTR Value2 l=180n w=1600n
SYMBOL cmosp 144 224 R0
SYMATTR InstName M6
SYMATTR Value2 l=180n w=1600n
SYMBOL cmosp 304 224 R0
SYMATTR InstName M7
SYMATTR Value2 l=180n w=2400n
SYMBOL cmosp -640 384 R0
SYMATTR InstName M8
SYMATTR Value2 l=180n w=3200n
SYMBOL cmosp -480 384 R0
SYMATTR InstName M9
SYMATTR Value2 l=180n w=3200n
SYMBOL cmosp 32 384 R0
SYMATTR InstName M10
SYMATTR Value2 l=180n w=1600n
SYMBOL cmosp 304 320 R0
SYMATTR InstName M11
SYMATTR Value2 l=180n w=2400n
SYMBOL cmosp 304 416 R0
SYMATTR InstName M12
SYMATTR Value2 l=180n w=2400n
SYMBOL cmosp 512 432 R0
SYMATTR InstName M13
SYMATTR Value2 l=180n w=800n
SYMBOL cmosn -640 560 R0
SYMATTR InstName M15
SYMATTR Value2 l=180n w=1600n
SYMBOL cmosn -480 560 R0
SYMATTR InstName M16
SYMATTR Value2 l=180n w=1600n
SYMBOL cmosn 32 560 R0
SYMATTR InstName M17
SYMATTR Value2 l=180n w=800n
SYMBOL cmosn 304 576 R0
SYMATTR InstName M18
SYMATTR Value2 l=180n w=1200n
SYMBOL cmosn 304 672 R0
SYMATTR InstName M21
SYMATTR Value2 l=180n w=1200n
SYMBOL cmosn 304 768 R0
SYMATTR InstName M22
SYMATTR Value2 l=180n w=1200n
SYMBOL cmosn 32 720 R0
SYMATTR InstName M24
SYMATTR Value2 l=180n w=800n
SYMBOL cmosn 160 720 R0
SYMATTR InstName M25
SYMATTR Value2 l=180n w=800n
SYMBOL cmosn -96 720 R0
SYMATTR InstName M26
SYMATTR Value2 l=180n w=800n
SYMBOL cmosn -480 720 R0
SYMATTR InstName M27
SYMATTR Value2 l=180n w=1600n
SYMBOL cmosn -592 720 R0
SYMATTR InstName M28
SYMATTR Value2 l=180n w=1600n
SYMBOL cmosn -704 720 R0
SYMATTR InstName M29
SYMATTR Value2 l=180n w=1600n
SYMBOL voltage 128 128 R180
WINDOW 0 24 96 Left 2
WINDOW 3 24 16 Left 2
WINDOW 123 0 0 Left 0
WINDOW 39 0 0 Left 0
SYMATTR InstName V1
SYMATTR Value 1.8
SYMBOL voltage -848 192 R0
WINDOW 3 -331 -34 Left 2
WINDOW 123 0 0 Left 0
WINDOW 39 0 0 Left 0
SYMATTR InstName A
SYMATTR Value PULSE(1.8 0 0 10p 100p 5n 10n)
SYMBOL voltage -848 368 R0
WINDOW 3 -327 -25 Left 2
WINDOW 123 0 0 Left 0
WINDOW 39 0 0 Left 0
SYMATTR InstName B
SYMATTR Value PULSE(1.8 0 0 10p 10p 10n 20n)
SYMBOL voltage -848 560 R0
WINDOW 3 -336 -34 Left 2
WINDOW 123 0 0 Left 0
WINDOW 39 0 0 Left 0
SYMATTR InstName C
SYMATTR Value PULSE(1.8 0 0 10p 10p 20n 40n)
SYMBOL cmosp -304 416 R0
SYMATTR InstName M14
SYMATTR Value2 l=180n w=800n
SYMBOL cmosn -304 576 R0
SYMATTR InstName M19
SYMATTR Value2 l=180n w=400n
SYMBOL cmosn 512 576 R0
SYMATTR InstName M20
SYMATTR Value2 l=180n w=400n
TEXT 416 40 Left 2 !.INCLUDE tsmc018.lib
TEXT -544 48 Left 2 !.tran 40n
